<routes>
            <vType id="veh" accel="0.8" decel="4.5" sigma="0.5" length="5" minGap="2.5" maxSpeed="16.67" guiShape="passenger"/>

            <route id="right" edges="51o 1i 2o 52i" />
            <route id="left" edges="52o 2i 1o 51i" />
            <route id="down" edges="54o 4i 3o 53i" />
            <route id="up" edges="53o 3i 4o 54i" />
    <vehicle id="left_0" type="veh" route="left" depart="0" />
    <vehicle id="left_1" type="veh" route="left" depart="2" />
    <vehicle id="right_2" type="veh" route="right" depart="3" />
    <vehicle id="up_3" type="veh" route="up" depart="4" color="1,0,0"/>
    <vehicle id="left_4" type="veh" route="left" depart="10" />
    <vehicle id="right_5" type="veh" route="right" depart="11" />
    <vehicle id="up_6" type="veh" route="up" depart="16" color="1,0,0"/>
    <vehicle id="right_7" type="veh" route="right" depart="22" />
    <vehicle id="left_8" type="veh" route="left" depart="22" />
    <vehicle id="right_9" type="veh" route="right" depart="25" />
    <vehicle id="right_10" type="veh" route="right" depart="31" />
    <vehicle id="down_11" type="veh" route="down" depart="31" color="1,0,0"/>
    <vehicle id="up_12" type="veh" route="up" depart="32" color="1,0,0"/>
    <vehicle id="right_13" type="veh" route="right" depart="34" />
    <vehicle id="right_14" type="veh" route="right" depart="40" />
    <vehicle id="left_15" type="veh" route="left" depart="41" />
    <vehicle id="right_16" type="veh" route="right" depart="44" />
    <vehicle id="left_17" type="veh" route="left" depart="49" />
    <vehicle id="up_18" type="veh" route="up" depart="51" color="1,0,0"/>
    <vehicle id="right_19" type="veh" route="right" depart="56" />
    <vehicle id="right_20" type="veh" route="right" depart="63" />
    <vehicle id="right_21" type="veh" route="right" depart="64" />
    <vehicle id="left_22" type="veh" route="left" depart="67" />
    <vehicle id="down_23" type="veh" route="down" depart="72" color="1,0,0"/>
    <vehicle id="left_24" type="veh" route="left" depart="74" />
    <vehicle id="right_25" type="veh" route="right" depart="81" />
    <vehicle id="down_26" type="veh" route="down" depart="85" color="1,0,0"/>
    <vehicle id="right_27" type="veh" route="right" depart="92" />
    <vehicle id="down_28" type="veh" route="down" depart="98" color="1,0,0"/>
    <vehicle id="up_29" type="veh" route="up" depart="103" color="1,0,0"/>
    <vehicle id="up_30" type="veh" route="up" depart="106" color="1,0,0"/>
    <vehicle id="up_31" type="veh" route="up" depart="108" color="1,0,0"/>
    <vehicle id="right_32" type="veh" route="right" depart="115" />
    <vehicle id="left_33" type="veh" route="left" depart="117" />
    <vehicle id="left_34" type="veh" route="left" depart="120" />
    <vehicle id="left_35" type="veh" route="left" depart="123" />
    <vehicle id="left_36" type="veh" route="left" depart="125" />
    <vehicle id="right_37" type="veh" route="right" depart="126" />
    <vehicle id="right_38" type="veh" route="right" depart="127" />
    <vehicle id="left_39" type="veh" route="left" depart="129" />
    <vehicle id="down_40" type="veh" route="down" depart="129" color="1,0,0"/>
    <vehicle id="right_41" type="veh" route="right" depart="132" />
    <vehicle id="up_42" type="veh" route="up" depart="135" color="1,0,0"/>
    <vehicle id="left_43" type="veh" route="left" depart="137" />
    <vehicle id="left_44" type="veh" route="left" depart="147" />
    <vehicle id="down_45" type="veh" route="down" depart="149" color="1,0,0"/>
    <vehicle id="right_46" type="veh" route="right" depart="150" />
    <vehicle id="right_47" type="veh" route="right" depart="152" />
    <vehicle id="left_48" type="veh" route="left" depart="159" />
    <vehicle id="up_49" type="veh" route="up" depart="162" color="1,0,0"/>
    <vehicle id="right_50" type="veh" route="right" depart="164" />
    <vehicle id="right_51" type="veh" route="right" depart="171" />
    <vehicle id="right_52" type="veh" route="right" depart="179" />
    <vehicle id="right_53" type="veh" route="right" depart="180" />
    <vehicle id="right_54" type="veh" route="right" depart="182" />
    <vehicle id="left_55" type="veh" route="left" depart="204" />
    <vehicle id="up_56" type="veh" route="up" depart="212" color="1,0,0"/>
    <vehicle id="right_57" type="veh" route="right" depart="213" />
    <vehicle id="right_58" type="veh" route="right" depart="216" />
    <vehicle id="left_59" type="veh" route="left" depart="218" />
    <vehicle id="down_60" type="veh" route="down" depart="220" color="1,0,0"/>
    <vehicle id="right_61" type="veh" route="right" depart="227" />
    <vehicle id="left_62" type="veh" route="left" depart="232" />
    <vehicle id="right_63" type="veh" route="right" depart="239" />
    <vehicle id="down_64" type="veh" route="down" depart="241" color="1,0,0"/>
    <vehicle id="up_65" type="veh" route="up" depart="242" color="1,0,0"/>
    <vehicle id="right_66" type="veh" route="right" depart="245" />
    <vehicle id="up_67" type="veh" route="up" depart="248" color="1,0,0"/>
    <vehicle id="right_68" type="veh" route="right" depart="250" />
    <vehicle id="left_69" type="veh" route="left" depart="253" />
    <vehicle id="down_70" type="veh" route="down" depart="256" color="1,0,0"/>
    <vehicle id="left_71" type="veh" route="left" depart="258" />
    <vehicle id="down_72" type="veh" route="down" depart="258" color="1,0,0"/>
    <vehicle id="up_73" type="veh" route="up" depart="259" color="1,0,0"/>
    <vehicle id="left_74" type="veh" route="left" depart="262" />
    <vehicle id="up_75" type="veh" route="up" depart="263" color="1,0,0"/>
    <vehicle id="left_76" type="veh" route="left" depart="265" />
    <vehicle id="right_77" type="veh" route="right" depart="266" />
    <vehicle id="left_78" type="veh" route="left" depart="281" />
    <vehicle id="left_79" type="veh" route="left" depart="283" />
    <vehicle id="up_80" type="veh" route="up" depart="284" color="1,0,0"/>
    <vehicle id="right_81" type="veh" route="right" depart="287" />
    <vehicle id="left_82" type="veh" route="left" depart="287" />
    <vehicle id="left_83" type="veh" route="left" depart="291" />
    <vehicle id="right_84" type="veh" route="right" depart="292" />
    <vehicle id="down_85" type="veh" route="down" depart="293" color="1,0,0"/>
    <vehicle id="right_86" type="veh" route="right" depart="296" />
    <vehicle id="left_87" type="veh" route="left" depart="296" />
    <vehicle id="left_88" type="veh" route="left" depart="298" />
    <vehicle id="right_89" type="veh" route="right" depart="309" />
    <vehicle id="right_90" type="veh" route="right" depart="310" />
    <vehicle id="right_91" type="veh" route="right" depart="311" />
    <vehicle id="left_92" type="veh" route="left" depart="315" />
    <vehicle id="right_93" type="veh" route="right" depart="320" />
    <vehicle id="right_94" type="veh" route="right" depart="329" />
    <vehicle id="left_95" type="veh" route="left" depart="343" />
    <vehicle id="up_96" type="veh" route="up" depart="344" color="1,0,0"/>
    <vehicle id="up_97" type="veh" route="up" depart="347" color="1,0,0"/>
    <vehicle id="right_98" type="veh" route="right" depart="348" />
    <vehicle id="left_99" type="veh" route="left" depart="350" />
    <vehicle id="right_100" type="veh" route="right" depart="352" />
    <vehicle id="left_101" type="veh" route="left" depart="354" />
    <vehicle id="left_102" type="veh" route="left" depart="357" />
    <vehicle id="left_103" type="veh" route="left" depart="359" />
    <vehicle id="right_104" type="veh" route="right" depart="363" />
    <vehicle id="left_105" type="veh" route="left" depart="369" />
    <vehicle id="left_106" type="veh" route="left" depart="372" />
    <vehicle id="right_107" type="veh" route="right" depart="374" />
    <vehicle id="left_108" type="veh" route="left" depart="376" />
    <vehicle id="up_109" type="veh" route="up" depart="385" color="1,0,0"/>
    <vehicle id="right_110" type="veh" route="right" depart="389" />
    <vehicle id="left_111" type="veh" route="left" depart="392" />
    <vehicle id="right_112" type="veh" route="right" depart="402" />
    <vehicle id="left_113" type="veh" route="left" depart="402" />
    <vehicle id="right_114" type="veh" route="right" depart="406" />
    <vehicle id="left_115" type="veh" route="left" depart="406" />
    <vehicle id="left_116" type="veh" route="left" depart="414" />
    <vehicle id="up_117" type="veh" route="up" depart="415" color="1,0,0"/>
    <vehicle id="up_118" type="veh" route="up" depart="423" color="1,0,0"/>
    <vehicle id="left_119" type="veh" route="left" depart="430" />
    <vehicle id="up_120" type="veh" route="up" depart="433" color="1,0,0"/>
    <vehicle id="down_121" type="veh" route="down" depart="434" color="1,0,0"/>
    <vehicle id="up_122" type="veh" route="up" depart="436" color="1,0,0"/>
    <vehicle id="up_123" type="veh" route="up" depart="451" color="1,0,0"/>
    <vehicle id="right_124" type="veh" route="right" depart="459" />
    <vehicle id="down_125" type="veh" route="down" depart="468" color="1,0,0"/>
    <vehicle id="left_126" type="veh" route="left" depart="469" />
    <vehicle id="right_127" type="veh" route="right" depart="477" />
    <vehicle id="right_128" type="veh" route="right" depart="481" />
    <vehicle id="right_129" type="veh" route="right" depart="483" />
    <vehicle id="left_130" type="veh" route="left" depart="484" />
    <vehicle id="up_131" type="veh" route="up" depart="484" color="1,0,0"/>
    <vehicle id="left_132" type="veh" route="left" depart="490" />
    <vehicle id="down_133" type="veh" route="down" depart="490" color="1,0,0"/>
    <vehicle id="down_134" type="veh" route="down" depart="494" color="1,0,0"/>
    <vehicle id="left_135" type="veh" route="left" depart="495" />
    <vehicle id="right_136" type="veh" route="right" depart="496" />
    <vehicle id="right_137" type="veh" route="right" depart="501" />
    <vehicle id="down_138" type="veh" route="down" depart="512" color="1,0,0"/>
    <vehicle id="right_139" type="veh" route="right" depart="517" />
    <vehicle id="up_140" type="veh" route="up" depart="525" color="1,0,0"/>
    <vehicle id="right_141" type="veh" route="right" depart="528" />
    <vehicle id="right_142" type="veh" route="right" depart="530" />
    <vehicle id="down_143" type="veh" route="down" depart="530" color="1,0,0"/>
    <vehicle id="down_144" type="veh" route="down" depart="531" color="1,0,0"/>
    <vehicle id="right_145" type="veh" route="right" depart="533" />
    <vehicle id="right_146" type="veh" route="right" depart="538" />
    <vehicle id="left_147" type="veh" route="left" depart="538" />
    <vehicle id="right_148" type="veh" route="right" depart="540" />
    <vehicle id="up_149" type="veh" route="up" depart="541" color="1,0,0"/>
    <vehicle id="right_150" type="veh" route="right" depart="542" />
    <vehicle id="right_151" type="veh" route="right" depart="543" />
    <vehicle id="right_152" type="veh" route="right" depart="545" />
    <vehicle id="left_153" type="veh" route="left" depart="548" />
    <vehicle id="left_154" type="veh" route="left" depart="550" />
    <vehicle id="left_155" type="veh" route="left" depart="555" />
    <vehicle id="down_156" type="veh" route="down" depart="557" color="1,0,0"/>
    <vehicle id="right_157" type="veh" route="right" depart="558" />
    <vehicle id="right_158" type="veh" route="right" depart="562" />
    <vehicle id="right_159" type="veh" route="right" depart="563" />
    <vehicle id="left_160" type="veh" route="left" depart="576" />
    <vehicle id="up_161" type="veh" route="up" depart="580" color="1,0,0"/>
    <vehicle id="down_162" type="veh" route="down" depart="582" color="1,0,0"/>
    <vehicle id="down_163" type="veh" route="down" depart="585" color="1,0,0"/>
    <vehicle id="up_164" type="veh" route="up" depart="593" color="1,0,0"/>
    <vehicle id="right_165" type="veh" route="right" depart="596" />
    <vehicle id="right_166" type="veh" route="right" depart="601" />
    <vehicle id="right_167" type="veh" route="right" depart="606" />
    <vehicle id="down_168" type="veh" route="down" depart="606" color="1,0,0"/>
    <vehicle id="right_169" type="veh" route="right" depart="609" />
    <vehicle id="left_170" type="veh" route="left" depart="609" />
    <vehicle id="left_171" type="veh" route="left" depart="613" />
    <vehicle id="right_172" type="veh" route="right" depart="629" />
    <vehicle id="up_173" type="veh" route="up" depart="630" color="1,0,0"/>
    <vehicle id="right_174" type="veh" route="right" depart="634" />
    <vehicle id="up_175" type="veh" route="up" depart="635" color="1,0,0"/>
    <vehicle id="up_176" type="veh" route="up" depart="640" color="1,0,0"/>
    <vehicle id="right_177" type="veh" route="right" depart="642" />
    <vehicle id="up_178" type="veh" route="up" depart="646" color="1,0,0"/>
    <vehicle id="right_179" type="veh" route="right" depart="649" />
    <vehicle id="left_180" type="veh" route="left" depart="651" />
    <vehicle id="left_181" type="veh" route="left" depart="659" />
    <vehicle id="right_182" type="veh" route="right" depart="660" />
    <vehicle id="left_183" type="veh" route="left" depart="660" />
    <vehicle id="right_184" type="veh" route="right" depart="662" />
    <vehicle id="left_185" type="veh" route="left" depart="665" />
    <vehicle id="left_186" type="veh" route="left" depart="666" />
    <vehicle id="up_187" type="veh" route="up" depart="671" color="1,0,0"/>
    <vehicle id="left_188" type="veh" route="left" depart="673" />
    <vehicle id="left_189" type="veh" route="left" depart="676" />
    <vehicle id="left_190" type="veh" route="left" depart="680" />
    <vehicle id="left_191" type="veh" route="left" depart="682" />
    <vehicle id="up_192" type="veh" route="up" depart="683" color="1,0,0"/>
    <vehicle id="right_193" type="veh" route="right" depart="687" />
    <vehicle id="up_194" type="veh" route="up" depart="688" color="1,0,0"/>
    <vehicle id="up_195" type="veh" route="up" depart="690" color="1,0,0"/>
    <vehicle id="left_196" type="veh" route="left" depart="693" />
    <vehicle id="left_197" type="veh" route="left" depart="694" />
    <vehicle id="left_198" type="veh" route="left" depart="697" />
    <vehicle id="up_199" type="veh" route="up" depart="701" color="1,0,0"/>
    <vehicle id="left_200" type="veh" route="left" depart="704" />
    <vehicle id="left_201" type="veh" route="left" depart="706" />
    <vehicle id="right_202" type="veh" route="right" depart="709" />
    <vehicle id="left_203" type="veh" route="left" depart="709" />
    <vehicle id="right_204" type="veh" route="right" depart="711" />
    <vehicle id="down_205" type="veh" route="down" depart="712" color="1,0,0"/>
    <vehicle id="left_206" type="veh" route="left" depart="714" />
    <vehicle id="up_207" type="veh" route="up" depart="715" color="1,0,0"/>
    <vehicle id="left_208" type="veh" route="left" depart="721" />
    <vehicle id="right_209" type="veh" route="right" depart="724" />
    <vehicle id="left_210" type="veh" route="left" depart="727" />
    <vehicle id="right_211" type="veh" route="right" depart="730" />
    <vehicle id="right_212" type="veh" route="right" depart="731" />
    <vehicle id="right_213" type="veh" route="right" depart="733" />
    <vehicle id="up_214" type="veh" route="up" depart="741" color="1,0,0"/>
    <vehicle id="right_215" type="veh" route="right" depart="745" />
    <vehicle id="down_216" type="veh" route="down" depart="747" color="1,0,0"/>
    <vehicle id="right_217" type="veh" route="right" depart="751" />
    <vehicle id="left_218" type="veh" route="left" depart="752" />
    <vehicle id="up_219" type="veh" route="up" depart="754" color="1,0,0"/>
    <vehicle id="left_220" type="veh" route="left" depart="758" />
    <vehicle id="up_221" type="veh" route="up" depart="760" color="1,0,0"/>
    <vehicle id="right_222" type="veh" route="right" depart="763" />
    <vehicle id="left_223" type="veh" route="left" depart="766" />
    <vehicle id="left_224" type="veh" route="left" depart="782" />
    <vehicle id="left_225" type="veh" route="left" depart="785" />
    <vehicle id="down_226" type="veh" route="down" depart="792" color="1,0,0"/>
    <vehicle id="up_227" type="veh" route="up" depart="795" color="1,0,0"/>
    <vehicle id="right_228" type="veh" route="right" depart="801" />
    <vehicle id="up_229" type="veh" route="up" depart="801" color="1,0,0"/>
    <vehicle id="up_230" type="veh" route="up" depart="802" color="1,0,0"/>
    <vehicle id="right_231" type="veh" route="right" depart="814" />
    <vehicle id="right_232" type="veh" route="right" depart="823" />
    <vehicle id="left_233" type="veh" route="left" depart="828" />
    <vehicle id="right_234" type="veh" route="right" depart="830" />
    <vehicle id="left_235" type="veh" route="left" depart="832" />
    <vehicle id="left_236" type="veh" route="left" depart="841" />
    <vehicle id="left_237" type="veh" route="left" depart="842" />
    <vehicle id="left_238" type="veh" route="left" depart="843" />
    <vehicle id="left_239" type="veh" route="left" depart="850" />
    <vehicle id="down_240" type="veh" route="down" depart="851" color="1,0,0"/>
    <vehicle id="right_241" type="veh" route="right" depart="853" />
    <vehicle id="up_242" type="veh" route="up" depart="855" color="1,0,0"/>
    <vehicle id="right_243" type="veh" route="right" depart="857" />
    <vehicle id="up_244" type="veh" route="up" depart="862" color="1,0,0"/>
    <vehicle id="left_245" type="veh" route="left" depart="865" />
    <vehicle id="left_246" type="veh" route="left" depart="867" />
    <vehicle id="up_247" type="veh" route="up" depart="872" color="1,0,0"/>
    <vehicle id="left_248" type="veh" route="left" depart="874" />
    <vehicle id="left_249" type="veh" route="left" depart="875" />
    <vehicle id="left_250" type="veh" route="left" depart="879" />
    <vehicle id="up_251" type="veh" route="up" depart="881" color="1,0,0"/>
    <vehicle id="right_252" type="veh" route="right" depart="886" />
    <vehicle id="left_253" type="veh" route="left" depart="892" />
    <vehicle id="right_254" type="veh" route="right" depart="906" />
    <vehicle id="right_255" type="veh" route="right" depart="909" />
    <vehicle id="up_256" type="veh" route="up" depart="913" color="1,0,0"/>
    <vehicle id="left_257" type="veh" route="left" depart="924" />
    <vehicle id="right_258" type="veh" route="right" depart="928" />
    <vehicle id="up_259" type="veh" route="up" depart="932" color="1,0,0"/>
    <vehicle id="up_260" type="veh" route="up" depart="934" color="1,0,0"/>
    <vehicle id="right_261" type="veh" route="right" depart="935" />
    <vehicle id="right_262" type="veh" route="right" depart="939" />
    <vehicle id="left_263" type="veh" route="left" depart="939" />
    <vehicle id="down_264" type="veh" route="down" depart="941" color="1,0,0"/>
    <vehicle id="left_265" type="veh" route="left" depart="950" />
    <vehicle id="left_266" type="veh" route="left" depart="956" />
    <vehicle id="right_267" type="veh" route="right" depart="961" />
    <vehicle id="left_268" type="veh" route="left" depart="966" />
    <vehicle id="up_269" type="veh" route="up" depart="966" color="1,0,0"/>
    <vehicle id="left_270" type="veh" route="left" depart="967" />
    <vehicle id="right_271" type="veh" route="right" depart="976" />
    <vehicle id="right_272" type="veh" route="right" depart="978" />
    <vehicle id="left_273" type="veh" route="left" depart="988" />
    <vehicle id="right_274" type="veh" route="right" depart="990" />
    <vehicle id="down_275" type="veh" route="down" depart="991" color="1,0,0"/>
    <vehicle id="left_276" type="veh" route="left" depart="999" />
</routes>
