<routes>
        <vType id="veh" accel="0.8" decel="4.5" sigma="0.5" length="5" minGap="2.5" maxSpeed="16.67" guiShape="passenger"/>

        <route id="right" edges="51o 1i 2o 52i" />
        <route id="left" edges="52o 2i 1o 51i" />
        <route id="down" edges="54o 4i 3o 53i" />
        <route id="up" edges="53o 3i 4o 54i" />
    <vehicle id="down_0" type="veh" route="down" depart="0" color="1,0,0"/>
    <vehicle id="left_1" type="veh" route="left" depart="4" />
    <vehicle id="left_2" type="veh" route="left" depart="6" />
    <vehicle id="down_3" type="veh" route="down" depart="12" color="1,0,0"/>
    <vehicle id="down_4" type="veh" route="down" depart="16" color="1,0,0"/>
    <vehicle id="left_5" type="veh" route="left" depart="21" />
    <vehicle id="right_6" type="veh" route="right" depart="23" />
    <vehicle id="right_7" type="veh" route="right" depart="25" />
    <vehicle id="right_8" type="veh" route="right" depart="26" />
    <vehicle id="right_9" type="veh" route="right" depart="42" />
    <vehicle id="left_10" type="veh" route="left" depart="51" />
    <vehicle id="up_11" type="veh" route="up" depart="52" color="1,0,0"/>
    <vehicle id="right_12" type="veh" route="right" depart="54" />
    <vehicle id="right_13" type="veh" route="right" depart="57" />
    <vehicle id="up_14" type="veh" route="up" depart="58" color="1,0,0"/>
    <vehicle id="left_15" type="veh" route="left" depart="59" />
    <vehicle id="up_16" type="veh" route="up" depart="61" color="1,0,0"/>
    <vehicle id="left_17" type="veh" route="left" depart="63" />
    <vehicle id="left_18" type="veh" route="left" depart="67" />
    <vehicle id="down_19" type="veh" route="down" depart="72" color="1,0,0"/>
    <vehicle id="up_20" type="veh" route="up" depart="73" color="1,0,0"/>
    <vehicle id="right_21" type="veh" route="right" depart="74" />
    <vehicle id="down_22" type="veh" route="down" depart="74" color="1,0,0"/>
    <vehicle id="down_23" type="veh" route="down" depart="76" color="1,0,0"/>
    <vehicle id="left_24" type="veh" route="left" depart="90" />
    <vehicle id="right_25" type="veh" route="right" depart="92" />
    <vehicle id="up_26" type="veh" route="up" depart="93" color="1,0,0"/>
    <vehicle id="up_27" type="veh" route="up" depart="107" color="1,0,0"/>
    <vehicle id="down_28" type="veh" route="down" depart="114" color="1,0,0"/>
    <vehicle id="right_29" type="veh" route="right" depart="117" />
    <vehicle id="up_30" type="veh" route="up" depart="124" color="1,0,0"/>
    <vehicle id="left_31" type="veh" route="left" depart="133" />
    <vehicle id="up_32" type="veh" route="up" depart="133" color="1,0,0"/>
    <vehicle id="right_33" type="veh" route="right" depart="135" />
    <vehicle id="left_34" type="veh" route="left" depart="139" />
    <vehicle id="down_35" type="veh" route="down" depart="139" color="1,0,0"/>
    <vehicle id="down_36" type="veh" route="down" depart="140" color="1,0,0"/>
    <vehicle id="left_37" type="veh" route="left" depart="141" />
    <vehicle id="right_38" type="veh" route="right" depart="144" />
    <vehicle id="up_39" type="veh" route="up" depart="144" color="1,0,0"/>
    <vehicle id="up_40" type="veh" route="up" depart="148" color="1,0,0"/>
    <vehicle id="left_41" type="veh" route="left" depart="150" />
    <vehicle id="left_42" type="veh" route="left" depart="153" />
    <vehicle id="down_43" type="veh" route="down" depart="154" color="1,0,0"/>
    <vehicle id="right_44" type="veh" route="right" depart="156" />
    <vehicle id="right_45" type="veh" route="right" depart="158" />
    <vehicle id="up_46" type="veh" route="up" depart="158" color="1,0,0"/>
    <vehicle id="down_47" type="veh" route="down" depart="159" color="1,0,0"/>
    <vehicle id="right_48" type="veh" route="right" depart="161" />
    <vehicle id="up_49" type="veh" route="up" depart="163" color="1,0,0"/>
    <vehicle id="left_50" type="veh" route="left" depart="164" />
    <vehicle id="down_51" type="veh" route="down" depart="167" color="1,0,0"/>
    <vehicle id="right_52" type="veh" route="right" depart="169" />
    <vehicle id="down_53" type="veh" route="down" depart="172" color="1,0,0"/>
    <vehicle id="up_54" type="veh" route="up" depart="175" color="1,0,0"/>
    <vehicle id="right_55" type="veh" route="right" depart="179" />
    <vehicle id="down_56" type="veh" route="down" depart="179" color="1,0,0"/>
    <vehicle id="right_57" type="veh" route="right" depart="182" />
    <vehicle id="down_58" type="veh" route="down" depart="189" color="1,0,0"/>
    <vehicle id="down_59" type="veh" route="down" depart="192" color="1,0,0"/>
    <vehicle id="left_60" type="veh" route="left" depart="193" />
    <vehicle id="right_61" type="veh" route="right" depart="196" />
    <vehicle id="right_62" type="veh" route="right" depart="197" />
    <vehicle id="left_63" type="veh" route="left" depart="200" />
    <vehicle id="left_64" type="veh" route="left" depart="201" />
    <vehicle id="right_65" type="veh" route="right" depart="205" />
    <vehicle id="down_66" type="veh" route="down" depart="205" color="1,0,0"/>
    <vehicle id="right_67" type="veh" route="right" depart="210" />
    <vehicle id="left_68" type="veh" route="left" depart="213" />
    <vehicle id="down_69" type="veh" route="down" depart="214" color="1,0,0"/>
    <vehicle id="left_70" type="veh" route="left" depart="216" />
    <vehicle id="right_71" type="veh" route="right" depart="217" />
    <vehicle id="down_72" type="veh" route="down" depart="221" color="1,0,0"/>
    <vehicle id="right_73" type="veh" route="right" depart="227" />
    <vehicle id="right_74" type="veh" route="right" depart="229" />
    <vehicle id="left_75" type="veh" route="left" depart="230" />
    <vehicle id="up_76" type="veh" route="up" depart="231" color="1,0,0"/>
    <vehicle id="left_77" type="veh" route="left" depart="234" />
    <vehicle id="right_78" type="veh" route="right" depart="237" />
    <vehicle id="down_79" type="veh" route="down" depart="240" color="1,0,0"/>
    <vehicle id="left_80" type="veh" route="left" depart="242" />
    <vehicle id="right_81" type="veh" route="right" depart="244" />
    <vehicle id="down_82" type="veh" route="down" depart="244" color="1,0,0"/>
    <vehicle id="down_83" type="veh" route="down" depart="245" color="1,0,0"/>
    <vehicle id="right_84" type="veh" route="right" depart="251" />
    <vehicle id="right_85" type="veh" route="right" depart="261" />
    <vehicle id="up_86" type="veh" route="up" depart="266" color="1,0,0"/>
    <vehicle id="left_87" type="veh" route="left" depart="268" />
    <vehicle id="down_88" type="veh" route="down" depart="268" color="1,0,0"/>
    <vehicle id="up_89" type="veh" route="up" depart="268" color="1,0,0"/>
    <vehicle id="up_90" type="veh" route="up" depart="269" color="1,0,0"/>
    <vehicle id="up_91" type="veh" route="up" depart="273" color="1,0,0"/>
    <vehicle id="down_92" type="veh" route="down" depart="274" color="1,0,0"/>
    <vehicle id="left_93" type="veh" route="left" depart="279" />
    <vehicle id="down_94" type="veh" route="down" depart="281" color="1,0,0"/>
    <vehicle id="up_95" type="veh" route="up" depart="283" color="1,0,0"/>
    <vehicle id="left_96" type="veh" route="left" depart="289" />
    <vehicle id="up_97" type="veh" route="up" depart="289" color="1,0,0"/>
    <vehicle id="left_98" type="veh" route="left" depart="296" />
    <vehicle id="right_99" type="veh" route="right" depart="298" />
    <vehicle id="down_100" type="veh" route="down" depart="299" color="1,0,0"/>
    <vehicle id="right_101" type="veh" route="right" depart="300" />
    <vehicle id="up_102" type="veh" route="up" depart="302" color="1,0,0"/>
    <vehicle id="right_103" type="veh" route="right" depart="312" />
    <vehicle id="left_104" type="veh" route="left" depart="315" />
    <vehicle id="right_105" type="veh" route="right" depart="318" />
    <vehicle id="down_106" type="veh" route="down" depart="318" color="1,0,0"/>
    <vehicle id="right_107" type="veh" route="right" depart="321" />
    <vehicle id="right_108" type="veh" route="right" depart="324" />
    <vehicle id="right_109" type="veh" route="right" depart="325" />
    <vehicle id="right_110" type="veh" route="right" depart="329" />
    <vehicle id="left_111" type="veh" route="left" depart="334" />
    <vehicle id="left_112" type="veh" route="left" depart="335" />
    <vehicle id="down_113" type="veh" route="down" depart="341" color="1,0,0"/>
    <vehicle id="left_114" type="veh" route="left" depart="342" />
    <vehicle id="right_115" type="veh" route="right" depart="343" />
    <vehicle id="left_116" type="veh" route="left" depart="343" />
    <vehicle id="left_117" type="veh" route="left" depart="348" />
    <vehicle id="up_118" type="veh" route="up" depart="348" color="1,0,0"/>
    <vehicle id="right_119" type="veh" route="right" depart="349" />
    <vehicle id="left_120" type="veh" route="left" depart="355" />
    <vehicle id="up_121" type="veh" route="up" depart="359" color="1,0,0"/>
    <vehicle id="right_122" type="veh" route="right" depart="369" />
    <vehicle id="left_123" type="veh" route="left" depart="369" />
    <vehicle id="down_124" type="veh" route="down" depart="369" color="1,0,0"/>
    <vehicle id="right_125" type="veh" route="right" depart="373" />
    <vehicle id="left_126" type="veh" route="left" depart="373" />
    <vehicle id="left_127" type="veh" route="left" depart="378" />
    <vehicle id="up_128" type="veh" route="up" depart="390" color="1,0,0"/>
    <vehicle id="left_129" type="veh" route="left" depart="391" />
    <vehicle id="left_130" type="veh" route="left" depart="396" />
    <vehicle id="left_131" type="veh" route="left" depart="398" />
    <vehicle id="right_132" type="veh" route="right" depart="399" />
    <vehicle id="left_133" type="veh" route="left" depart="403" />
    <vehicle id="right_134" type="veh" route="right" depart="409" />
    <vehicle id="right_135" type="veh" route="right" depart="410" />
    <vehicle id="right_136" type="veh" route="right" depart="411" />
    <vehicle id="left_137" type="veh" route="left" depart="411" />
    <vehicle id="left_138" type="veh" route="left" depart="419" />
    <vehicle id="right_139" type="veh" route="right" depart="423" />
    <vehicle id="up_140" type="veh" route="up" depart="423" color="1,0,0"/>
    <vehicle id="right_141" type="veh" route="right" depart="427" />
    <vehicle id="left_142" type="veh" route="left" depart="429" />
    <vehicle id="up_143" type="veh" route="up" depart="430" color="1,0,0"/>
    <vehicle id="left_144" type="veh" route="left" depart="432" />
    <vehicle id="left_145" type="veh" route="left" depart="442" />
    <vehicle id="right_146" type="veh" route="right" depart="443" />
    <vehicle id="right_147" type="veh" route="right" depart="446" />
    <vehicle id="left_148" type="veh" route="left" depart="446" />
    <vehicle id="right_149" type="veh" route="right" depart="447" />
    <vehicle id="right_150" type="veh" route="right" depart="450" />
    <vehicle id="left_151" type="veh" route="left" depart="459" />
    <vehicle id="down_152" type="veh" route="down" depart="463" color="1,0,0"/>
    <vehicle id="up_153" type="veh" route="up" depart="474" color="1,0,0"/>
    <vehicle id="up_154" type="veh" route="up" depart="475" color="1,0,0"/>
    <vehicle id="left_155" type="veh" route="left" depart="484" />
    <vehicle id="up_156" type="veh" route="up" depart="486" color="1,0,0"/>
    <vehicle id="up_157" type="veh" route="up" depart="487" color="1,0,0"/>
    <vehicle id="up_158" type="veh" route="up" depart="490" color="1,0,0"/>
    <vehicle id="left_159" type="veh" route="left" depart="494" />
    <vehicle id="up_160" type="veh" route="up" depart="494" color="1,0,0"/>
    <vehicle id="left_161" type="veh" route="left" depart="495" />
    <vehicle id="left_162" type="veh" route="left" depart="501" />
    <vehicle id="down_163" type="veh" route="down" depart="503" color="1,0,0"/>
    <vehicle id="left_164" type="veh" route="left" depart="504" />
    <vehicle id="right_165" type="veh" route="right" depart="506" />
    <vehicle id="down_166" type="veh" route="down" depart="513" color="1,0,0"/>
    <vehicle id="left_167" type="veh" route="left" depart="514" />
    <vehicle id="right_168" type="veh" route="right" depart="516" />
    <vehicle id="left_169" type="veh" route="left" depart="516" />
    <vehicle id="left_170" type="veh" route="left" depart="518" />
    <vehicle id="left_171" type="veh" route="left" depart="520" />
    <vehicle id="right_172" type="veh" route="right" depart="527" />
    <vehicle id="right_173" type="veh" route="right" depart="531" />
    <vehicle id="up_174" type="veh" route="up" depart="531" color="1,0,0"/>
    <vehicle id="up_175" type="veh" route="up" depart="542" color="1,0,0"/>
    <vehicle id="left_176" type="veh" route="left" depart="556" />
    <vehicle id="down_177" type="veh" route="down" depart="556" color="1,0,0"/>
    <vehicle id="right_178" type="veh" route="right" depart="557" />
    <vehicle id="up_179" type="veh" route="up" depart="558" color="1,0,0"/>
    <vehicle id="down_180" type="veh" route="down" depart="561" color="1,0,0"/>
    <vehicle id="down_181" type="veh" route="down" depart="563" color="1,0,0"/>
    <vehicle id="left_182" type="veh" route="left" depart="564" />
    <vehicle id="left_183" type="veh" route="left" depart="565" />
    <vehicle id="up_184" type="veh" route="up" depart="566" color="1,0,0"/>
    <vehicle id="right_185" type="veh" route="right" depart="568" />
    <vehicle id="left_186" type="veh" route="left" depart="570" />
    <vehicle id="right_187" type="veh" route="right" depart="573" />
    <vehicle id="right_188" type="veh" route="right" depart="574" />
    <vehicle id="right_189" type="veh" route="right" depart="576" />
    <vehicle id="left_190" type="veh" route="left" depart="576" />
    <vehicle id="up_191" type="veh" route="up" depart="576" color="1,0,0"/>
    <vehicle id="left_192" type="veh" route="left" depart="587" />
    <vehicle id="right_193" type="veh" route="right" depart="590" />
    <vehicle id="left_194" type="veh" route="left" depart="595" />
    <vehicle id="up_195" type="veh" route="up" depart="600" color="1,0,0"/>
    <vehicle id="right_196" type="veh" route="right" depart="601" />
    <vehicle id="up_197" type="veh" route="up" depart="602" color="1,0,0"/>
    <vehicle id="up_198" type="veh" route="up" depart="608" color="1,0,0"/>
    <vehicle id="up_199" type="veh" route="up" depart="609" color="1,0,0"/>
    <vehicle id="right_200" type="veh" route="right" depart="611" />
    <vehicle id="down_201" type="veh" route="down" depart="617" color="1,0,0"/>
    <vehicle id="up_202" type="veh" route="up" depart="621" color="1,0,0"/>
    <vehicle id="down_203" type="veh" route="down" depart="624" color="1,0,0"/>
    <vehicle id="right_204" type="veh" route="right" depart="628" />
    <vehicle id="right_205" type="veh" route="right" depart="636" />
    <vehicle id="up_206" type="veh" route="up" depart="638" color="1,0,0"/>
    <vehicle id="down_207" type="veh" route="down" depart="639" color="1,0,0"/>
    <vehicle id="right_208" type="veh" route="right" depart="644" />
    <vehicle id="right_209" type="veh" route="right" depart="645" />
    <vehicle id="left_210" type="veh" route="left" depart="649" />
    <vehicle id="up_211" type="veh" route="up" depart="654" color="1,0,0"/>
    <vehicle id="right_212" type="veh" route="right" depart="655" />
    <vehicle id="left_213" type="veh" route="left" depart="665" />
    <vehicle id="up_214" type="veh" route="up" depart="667" color="1,0,0"/>
    <vehicle id="left_215" type="veh" route="left" depart="670" />
    <vehicle id="right_216" type="veh" route="right" depart="672" />
    <vehicle id="down_217" type="veh" route="down" depart="672" color="1,0,0"/>
    <vehicle id="right_218" type="veh" route="right" depart="675" />
    <vehicle id="up_219" type="veh" route="up" depart="682" color="1,0,0"/>
    <vehicle id="up_220" type="veh" route="up" depart="683" color="1,0,0"/>
    <vehicle id="left_221" type="veh" route="left" depart="684" />
    <vehicle id="left_222" type="veh" route="left" depart="686" />
    <vehicle id="up_223" type="veh" route="up" depart="687" color="1,0,0"/>
    <vehicle id="up_224" type="veh" route="up" depart="688" color="1,0,0"/>
    <vehicle id="up_225" type="veh" route="up" depart="691" color="1,0,0"/>
    <vehicle id="right_226" type="veh" route="right" depart="695" />
    <vehicle id="right_227" type="veh" route="right" depart="697" />
    <vehicle id="up_228" type="veh" route="up" depart="697" color="1,0,0"/>
    <vehicle id="right_229" type="veh" route="right" depart="701" />
    <vehicle id="up_230" type="veh" route="up" depart="701" color="1,0,0"/>
    <vehicle id="left_231" type="veh" route="left" depart="703" />
    <vehicle id="down_232" type="veh" route="down" depart="705" color="1,0,0"/>
    <vehicle id="left_233" type="veh" route="left" depart="711" />
    <vehicle id="up_234" type="veh" route="up" depart="713" color="1,0,0"/>
    <vehicle id="left_235" type="veh" route="left" depart="717" />
    <vehicle id="right_236" type="veh" route="right" depart="724" />
    <vehicle id="down_237" type="veh" route="down" depart="724" color="1,0,0"/>
    <vehicle id="left_238" type="veh" route="left" depart="727" />
    <vehicle id="left_239" type="veh" route="left" depart="729" />
    <vehicle id="down_240" type="veh" route="down" depart="729" color="1,0,0"/>
    <vehicle id="up_241" type="veh" route="up" depart="729" color="1,0,0"/>
    <vehicle id="left_242" type="veh" route="left" depart="731" />
    <vehicle id="left_243" type="veh" route="left" depart="736" />
    <vehicle id="down_244" type="veh" route="down" depart="745" color="1,0,0"/>
    <vehicle id="right_245" type="veh" route="right" depart="751" />
    <vehicle id="right_246" type="veh" route="right" depart="771" />
    <vehicle id="left_247" type="veh" route="left" depart="781" />
    <vehicle id="up_248" type="veh" route="up" depart="783" color="1,0,0"/>
    <vehicle id="up_249" type="veh" route="up" depart="786" color="1,0,0"/>
    <vehicle id="right_250" type="veh" route="right" depart="790" />
    <vehicle id="up_251" type="veh" route="up" depart="790" color="1,0,0"/>
    <vehicle id="left_252" type="veh" route="left" depart="794" />
    <vehicle id="left_253" type="veh" route="left" depart="799" />
    <vehicle id="left_254" type="veh" route="left" depart="803" />
    <vehicle id="left_255" type="veh" route="left" depart="808" />
    <vehicle id="left_256" type="veh" route="left" depart="811" />
    <vehicle id="left_257" type="veh" route="left" depart="812" />
    <vehicle id="down_258" type="veh" route="down" depart="813" color="1,0,0"/>
    <vehicle id="up_259" type="veh" route="up" depart="813" color="1,0,0"/>
    <vehicle id="left_260" type="veh" route="left" depart="819" />
    <vehicle id="up_261" type="veh" route="up" depart="819" color="1,0,0"/>
    <vehicle id="down_262" type="veh" route="down" depart="822" color="1,0,0"/>
    <vehicle id="left_263" type="veh" route="left" depart="823" />
    <vehicle id="down_264" type="veh" route="down" depart="827" color="1,0,0"/>
    <vehicle id="right_265" type="veh" route="right" depart="831" />
    <vehicle id="left_266" type="veh" route="left" depart="841" />
    <vehicle id="up_267" type="veh" route="up" depart="844" color="1,0,0"/>
    <vehicle id="right_268" type="veh" route="right" depart="845" />
    <vehicle id="down_269" type="veh" route="down" depart="847" color="1,0,0"/>
    <vehicle id="left_270" type="veh" route="left" depart="851" />
    <vehicle id="up_271" type="veh" route="up" depart="851" color="1,0,0"/>
    <vehicle id="right_272" type="veh" route="right" depart="859" />
    <vehicle id="down_273" type="veh" route="down" depart="859" color="1,0,0"/>
    <vehicle id="left_274" type="veh" route="left" depart="860" />
    <vehicle id="left_275" type="veh" route="left" depart="864" />
    <vehicle id="left_276" type="veh" route="left" depart="873" />
    <vehicle id="down_277" type="veh" route="down" depart="876" color="1,0,0"/>
    <vehicle id="right_278" type="veh" route="right" depart="882" />
    <vehicle id="down_279" type="veh" route="down" depart="893" color="1,0,0"/>
    <vehicle id="down_280" type="veh" route="down" depart="894" color="1,0,0"/>
    <vehicle id="right_281" type="veh" route="right" depart="895" />
    <vehicle id="right_282" type="veh" route="right" depart="910" />
    <vehicle id="right_283" type="veh" route="right" depart="916" />
    <vehicle id="down_284" type="veh" route="down" depart="924" color="1,0,0"/>
    <vehicle id="up_285" type="veh" route="up" depart="925" color="1,0,0"/>
    <vehicle id="up_286" type="veh" route="up" depart="927" color="1,0,0"/>
    <vehicle id="right_287" type="veh" route="right" depart="928" />
    <vehicle id="right_288" type="veh" route="right" depart="931" />
    <vehicle id="left_289" type="veh" route="left" depart="932" />
    <vehicle id="up_290" type="veh" route="up" depart="947" color="1,0,0"/>
    <vehicle id="left_291" type="veh" route="left" depart="948" />
    <vehicle id="up_292" type="veh" route="up" depart="949" color="1,0,0"/>
    <vehicle id="right_293" type="veh" route="right" depart="951" />
    <vehicle id="down_294" type="veh" route="down" depart="957" color="1,0,0"/>
    <vehicle id="right_295" type="veh" route="right" depart="958" />
    <vehicle id="down_296" type="veh" route="down" depart="958" color="1,0,0"/>
    <vehicle id="left_297" type="veh" route="left" depart="962" />
    <vehicle id="left_298" type="veh" route="left" depart="964" />
    <vehicle id="up_299" type="veh" route="up" depart="968" color="1,0,0"/>
    <vehicle id="right_300" type="veh" route="right" depart="972" />
    <vehicle id="up_301" type="veh" route="up" depart="975" color="1,0,0"/>
    <vehicle id="down_302" type="veh" route="down" depart="980" color="1,0,0"/>
    <vehicle id="left_303" type="veh" route="left" depart="983" />
    <vehicle id="up_304" type="veh" route="up" depart="985" color="1,0,0"/>
    <vehicle id="left_305" type="veh" route="left" depart="990" />
    <vehicle id="down_306" type="veh" route="down" depart="990" color="1,0,0"/>
    <vehicle id="down_307" type="veh" route="down" depart="991" color="1,0,0"/>
    <vehicle id="left_308" type="veh" route="left" depart="994" />
    <vehicle id="left_309" type="veh" route="left" depart="996" />
    <vehicle id="down_310" type="veh" route="down" depart="998" color="1,0,0"/>
    <vehicle id="right_311" type="veh" route="right" depart="1004" />
    <vehicle id="up_312" type="veh" route="up" depart="1004" color="1,0,0"/>
    <vehicle id="right_313" type="veh" route="right" depart="1009" />
    <vehicle id="right_314" type="veh" route="right" depart="1016" />
    <vehicle id="left_315" type="veh" route="left" depart="1016" />
    <vehicle id="up_316" type="veh" route="up" depart="1021" color="1,0,0"/>
    <vehicle id="right_317" type="veh" route="right" depart="1022" />
    <vehicle id="down_318" type="veh" route="down" depart="1024" color="1,0,0"/>
    <vehicle id="left_319" type="veh" route="left" depart="1035" />
    <vehicle id="up_320" type="veh" route="up" depart="1038" color="1,0,0"/>
    <vehicle id="left_321" type="veh" route="left" depart="1043" />
    <vehicle id="down_322" type="veh" route="down" depart="1049" color="1,0,0"/>
    <vehicle id="right_323" type="veh" route="right" depart="1050" />
    <vehicle id="up_324" type="veh" route="up" depart="1051" color="1,0,0"/>
    <vehicle id="down_325" type="veh" route="down" depart="1052" color="1,0,0"/>
    <vehicle id="left_326" type="veh" route="left" depart="1053" />
    <vehicle id="up_327" type="veh" route="up" depart="1056" color="1,0,0"/>
    <vehicle id="down_328" type="veh" route="down" depart="1058" color="1,0,0"/>
    <vehicle id="up_329" type="veh" route="up" depart="1063" color="1,0,0"/>
    <vehicle id="up_330" type="veh" route="up" depart="1071" color="1,0,0"/>
    <vehicle id="down_331" type="veh" route="down" depart="1074" color="1,0,0"/>
    <vehicle id="right_332" type="veh" route="right" depart="1079" />
    <vehicle id="right_333" type="veh" route="right" depart="1082" />
    <vehicle id="right_334" type="veh" route="right" depart="1083" />
    <vehicle id="right_335" type="veh" route="right" depart="1085" />
    <vehicle id="right_336" type="veh" route="right" depart="1086" />
    <vehicle id="left_337" type="veh" route="left" depart="1089" />
    <vehicle id="up_338" type="veh" route="up" depart="1090" color="1,0,0"/>
    <vehicle id="left_339" type="veh" route="left" depart="1095" />
    <vehicle id="right_340" type="veh" route="right" depart="1098" />
    <vehicle id="right_341" type="veh" route="right" depart="1100" />
    <vehicle id="right_342" type="veh" route="right" depart="1104" />
    <vehicle id="left_343" type="veh" route="left" depart="1105" />
    <vehicle id="right_344" type="veh" route="right" depart="1106" />
    <vehicle id="up_345" type="veh" route="up" depart="1118" color="1,0,0"/>
    <vehicle id="right_346" type="veh" route="right" depart="1136" />
    <vehicle id="up_347" type="veh" route="up" depart="1138" color="1,0,0"/>
    <vehicle id="right_348" type="veh" route="right" depart="1140" />
    <vehicle id="left_349" type="veh" route="left" depart="1143" />
    <vehicle id="down_350" type="veh" route="down" depart="1145" color="1,0,0"/>
    <vehicle id="right_351" type="veh" route="right" depart="1149" />
    <vehicle id="left_352" type="veh" route="left" depart="1152" />
    <vehicle id="down_353" type="veh" route="down" depart="1153" color="1,0,0"/>
    <vehicle id="down_354" type="veh" route="down" depart="1160" color="1,0,0"/>
    <vehicle id="up_355" type="veh" route="up" depart="1161" color="1,0,0"/>
    <vehicle id="down_356" type="veh" route="down" depart="1168" color="1,0,0"/>
    <vehicle id="down_357" type="veh" route="down" depart="1177" color="1,0,0"/>
    <vehicle id="left_358" type="veh" route="left" depart="1180" />
    <vehicle id="right_359" type="veh" route="right" depart="1181" />
    <vehicle id="right_360" type="veh" route="right" depart="1185" />
    <vehicle id="down_361" type="veh" route="down" depart="1190" color="1,0,0"/>
    <vehicle id="left_362" type="veh" route="left" depart="1191" />
    <vehicle id="up_363" type="veh" route="up" depart="1193" color="1,0,0"/>
    <vehicle id="left_364" type="veh" route="left" depart="1194" />
    <vehicle id="left_365" type="veh" route="left" depart="1195" />
    <vehicle id="right_366" type="veh" route="right" depart="1205" />
    <vehicle id="right_367" type="veh" route="right" depart="1210" />
    <vehicle id="left_368" type="veh" route="left" depart="1212" />
    <vehicle id="down_369" type="veh" route="down" depart="1216" color="1,0,0"/>
    <vehicle id="left_370" type="veh" route="left" depart="1220" />
    <vehicle id="right_371" type="veh" route="right" depart="1226" />
    <vehicle id="left_372" type="veh" route="left" depart="1228" />
    <vehicle id="right_373" type="veh" route="right" depart="1231" />
    <vehicle id="down_374" type="veh" route="down" depart="1231" color="1,0,0"/>
    <vehicle id="left_375" type="veh" route="left" depart="1240" />
    <vehicle id="right_376" type="veh" route="right" depart="1241" />
    <vehicle id="up_377" type="veh" route="up" depart="1244" color="1,0,0"/>
    <vehicle id="right_378" type="veh" route="right" depart="1245" />
    <vehicle id="up_379" type="veh" route="up" depart="1249" color="1,0,0"/>
    <vehicle id="up_380" type="veh" route="up" depart="1252" color="1,0,0"/>
    <vehicle id="left_381" type="veh" route="left" depart="1255" />
    <vehicle id="left_382" type="veh" route="left" depart="1257" />
    <vehicle id="down_383" type="veh" route="down" depart="1260" color="1,0,0"/>
    <vehicle id="left_384" type="veh" route="left" depart="1263" />
    <vehicle id="up_385" type="veh" route="up" depart="1268" color="1,0,0"/>
    <vehicle id="right_386" type="veh" route="right" depart="1269" />
    <vehicle id="left_387" type="veh" route="left" depart="1269" />
    <vehicle id="right_388" type="veh" route="right" depart="1270" />
    <vehicle id="left_389" type="veh" route="left" depart="1270" />
    <vehicle id="right_390" type="veh" route="right" depart="1271" />
    <vehicle id="right_391" type="veh" route="right" depart="1273" />
    <vehicle id="down_392" type="veh" route="down" depart="1274" color="1,0,0"/>
    <vehicle id="right_393" type="veh" route="right" depart="1276" />
    <vehicle id="up_394" type="veh" route="up" depart="1276" color="1,0,0"/>
    <vehicle id="left_395" type="veh" route="left" depart="1280" />
    <vehicle id="right_396" type="veh" route="right" depart="1287" />
    <vehicle id="left_397" type="veh" route="left" depart="1287" />
    <vehicle id="up_398" type="veh" route="up" depart="1291" color="1,0,0"/>
    <vehicle id="up_399" type="veh" route="up" depart="1296" color="1,0,0"/>
    <vehicle id="right_400" type="veh" route="right" depart="1298" />
    <vehicle id="right_401" type="veh" route="right" depart="1302" />
    <vehicle id="left_402" type="veh" route="left" depart="1302" />
    <vehicle id="up_403" type="veh" route="up" depart="1302" color="1,0,0"/>
    <vehicle id="right_404" type="veh" route="right" depart="1303" />
    <vehicle id="up_405" type="veh" route="up" depart="1307" color="1,0,0"/>
    <vehicle id="left_406" type="veh" route="left" depart="1312" />
    <vehicle id="up_407" type="veh" route="up" depart="1316" color="1,0,0"/>
    <vehicle id="right_408" type="veh" route="right" depart="1319" />
    <vehicle id="left_409" type="veh" route="left" depart="1325" />
    <vehicle id="down_410" type="veh" route="down" depart="1326" color="1,0,0"/>
    <vehicle id="right_411" type="veh" route="right" depart="1327" />
    <vehicle id="left_412" type="veh" route="left" depart="1329" />